/*--------------------------------*- C++ -*----------------------------------*\
  =========                 |
  \\      /  F ield         | OpenFOAM: The Open Source CFD Toolbox
   \\    /   O peration     | Website:  https://openfoam.org
    \\  /    A nd           | Version:  7
     \\/     M anipulation  |
\*---------------------------------------------------------------------------*/
FoamFile
{
    version     2.0;
    format      ascii;
    class       polyBoundaryMesh;
    location    "constant/polyMesh";
    object      boundary;
}
// * * * * * * * * * * * * * * * * * * * * * * * * * * * * * * * * * * * * * //

4
(
    fixed
    {
        type            patch;
        physicalType    patch;
        nFaces          40;
        startFace       3880;
    }
    free
    {
        type            patch;
        physicalType    patch;
        nFaces          1600;
        startFace       3920;
    }
    symmetric
    {
        type            patch;
        physicalType    patch;
        nFaces          160;
        startFace       5520;
    }
    loading
    {
        type            patch;
        physicalType    patch;
        nFaces          40;
        startFace       5680;
    }
)

// ************************************************************************* //
